! File generated by DesignBuilder - 7.0.2.003 07/10/2022 - 14:17:03
! Source file: C:\Users\James\Desktop\test1\midflat_2BR_basecase.dsb

! Geometry convention template : External measurements
! Zone geometry and surface areas : 2-Outer
! Zone volume calculation method : 1-Inner
! Zone floor area calculation method : 1-Inner
! Window to wall ratio method : 1-Inner

Version, 9.4.0.002;                               !- Version Identifier

RunPeriod,                                        !- Annual simulation
   midflat2 (01-01:31-12),                        !- Location
   1,1, 2002,                                     !- Start Month , Day
   12,31, 2002,                                   !- End Month , Day
   ,                                              !- Day of Week for Start Day
   No,                                            !- Use weather file holidays/special day periods
   No,                                            !- Use WeatherFile DaylightSavingPeriod - will use daylight saving time shown below
   Yes,                                           !- Apply Weekend Holiday Rule - will reassign weekend holidays to Monday
   Yes,                                           !- use weather file rain indicators
   Yes,                                           !- use weather file snow indicators
   No;                                            !- Treat Weather as Actual

RunPeriodControl:DaylightSavingTime, Last Sunday in March,Last Sunday in October;  !- Daylight saving dates - one hour is added to local mean time to obtain the locally observed time during this period

! Hourly weather file: C:\ProgramData\DesignBuilder\Weather Data\IRL_DUBLIN_IWEC.epw

Site:Location,midflat2 (01-01:31-12)  (01-01:31-12),  !- Location Name
   53.43,                                         !- Latitude
   -6.25,                                         !- Longitude
   0,                                             !- Time Zone
   85;                                            !- Elevation {m}

Site:GroundTemperature:BuildingSurface,           !- Annual ground temperatures - 1 value for each month
   18,                                            !- Jan ground temperature
   18,                                            !- Feb ground temperature
   18,                                            !- Mar ground temperature
   18,                                            !- Apr ground temperature
   18,                                            !- May ground temperature
   18,                                            !- Jun ground temperature
   18,                                            !- Jul ground temperature
   18,                                            !- Aug ground temperature
   18,                                            !- Sep ground temperature
   18,                                            !- Oct ground temperature
   18,                                            !- Nov ground temperature
   18;                                            !- Dec ground temperature

Site:GroundTemperature:Deep,                      !- Annual ground temperatures - 1 value for each month
   14,                                            !- Jan deep ground temperature
   14,                                            !- Feb deep ground temperature
   14,                                            !- Mar deep ground temperature
   14,                                            !- Apr deep ground temperature
   14,                                            !- May deep ground temperature
   14,                                            !- Jun deep ground temperature
   14,                                            !- Jul deep ground temperature
   14,                                            !- Aug deep ground temperature
   14,                                            !- Sep deep ground temperature
   14,                                            !- Oct deep ground temperature
   14,                                            !- Nov deep ground temperature
   14;                                            !- Dec deep ground temperature

Site:GroundTemperature:Shallow,                   !- Annual ground temperatures - 1 value for each month
   14,                                            !- Jan shallow ground temperature
   14,                                            !- Feb shallow ground temperature
   14,                                            !- Mar shallow ground temperature
   14,                                            !- Apr shallow ground temperature
   14,                                            !- May shallow ground temperature
   14,                                            !- Jun shallow ground temperature
   14,                                            !- Jul shallow ground temperature
   14,                                            !- Aug shallow ground temperature
   14,                                            !- Sep shallow ground temperature
   14,                                            !- Oct shallow ground temperature
   14,                                            !- Nov shallow ground temperature
   14;                                            !- Dec shallow ground temperature

Site:GroundTemperature:FCfactorMethod,            !- Annual ground temperatures - 1 value for each month
   5.34,                                          !- January FCfactorMethod ground temperature {C}
   4.90,                                          !- Februry FCfactorMethod ground temperature {C}
   5.68,                                          !- March FCfactorMethod ground temperature {C}
   6.89,                                          !- April FCfactorMethod ground temperature {C}
   10.07,                                         !- May FCfactorMethod ground temperature {C}
   12.52,                                         !- June FCfactorMethod ground temperature {C}
   14.17,                                         !- July FCfactorMethod ground temperature {C}
   14.68,                                         !- August FCfactorMethod ground temperature {C}
   13.82,                                         !- September FCfactorMethod ground temperature {C}
   11.92,                                         !- October FCfactorMethod ground temperature {C}
   9.37,                                          !- November FCfactorMethod ground temperature {C}
   7.01;                                          !- December FCfactorMethod ground temperature {C}

Site:GroundReflectance,                           !- Annual ground reflectances - 1 value for each month
   0.2,                                           !- Jan ground reflectance
   0.2,                                           !- Feb ground reflectance
   0.2,                                           !- Mar ground reflectance
   0.2,                                           !- Apr ground reflectance
   0.2,                                           !- May ground reflectance
   0.2,                                           !- Jun ground reflectance
   0.2,                                           !- Jul ground reflectance
   0.2,                                           !- Aug ground reflectance
   0.2,                                           !- Sep ground reflectance
   0.2,                                           !- Oct ground reflectance
   0.2,                                           !- Nov ground reflectance
   0.2;                                           !- Dec ground reflectance

Site:GroundReflectance:SnowModifier,
   2.0,                                           !- Ground Reflected Solar Modifier
   2.0;                                           !- Daylighting Ground Reflected Solar Modifier

SimulationControl,
   Yes,                                           !- Do the zone sizing calculation
   Yes,                                           !- Do the system sizing calculation
   Yes,                                           !- Do the plant sizing calculation
   No,                                            !- Do the design day calculation
   Yes;                                           !- Do the weather file calculation


SizingPeriod:DesignDay, Summer Design Day in midflat2 (01-01:31-12) Jul,  !- Design Day Name
   7,                                             !- Month
   15,                                            !- Day of Month
   SummerDesignDay,                               !- Day Type -- used for schedules
   22,                                            !- Maximum Dry-Bulb Temperature {C}
   7.1,                                           !- Daily Dry-Bulb Temperature Range {C}
   ,                                              !- Dry-Bulb Temperature Range Modifier Type
   ,                                              !- Dry-Bulb Temperature Range Modifier Schedule
   WetBulb,                                       !- Humidity Condition Type
   17.1,                                          !- Wetbulb at Maximum Dry-Bulb{C}
   ,                                              !- Humidity Condition Day Schedule Name
   ,                                              !- Humidity Ratio at Maximum Dry-Bulb
   ,                                              !- Enthalpy Ratio at Maximum Dry-Bulb
   ,                                              !- Daily Wet-Bulb Temperature Range
   100308,                                        !- Barometric Pressure {N/M**2}
   0,                                             !- Wind Speed {m/s}
   0,                                             !- Wind Direction {Degrees N=0, S=180}
   No,                                            !- Rain Indicator
   No,                                            !- Snow on ground indicator
   Yes,                                           !- Daylight Savings Time Indicator
   ASHRAEClearSky,                                !- Solar Model Indicator
   ,                                              !- Beam Solar Day Schedule Name
   ,                                              !- Diffuse Solar Day Schedule Name
   ,                                              !- ASHRAE Clear Sky Optical Depth for Beam Irradiance (taub)
   ,                                              !- ASHRAE Clear Sky Optical Depth for Diffuse Irradiance (taud)
   0.98;                                          !- Clearness {0.0 to 1.2}

SizingPeriod:DesignDay, Winter Design Day in midflat2 (01-01:31-12),  !- Design Day Name
   1,                                             !- Month
   15,                                            !- Day of Month
   WinterDesignDay,                               !- Day Type -- used for schedules
   -2.7,                                          !- Max Dry-Bulb {C}
   0,                                             !- Daily Temp Range {C}
   ,                                              !- Dry-Bulb Temperature Range Modifier Type
   ,                                              !- Dry-Bulb Temperature Range Modifier Schedule
   WetBulb,                                       !- Humidity Condition Type
   -2.7,                                          !- Wet-Bulb at Max {C}
   ,                                              !- Humidity Condition Day Schedule Name
   ,                                              !- Humidity Ratio at Maximum Dry-Bulb
   ,                                              !- Enthalpy Ratio at Maximum Dry-Bulb
   ,                                              !- Daily Wet-Bulb Temperature Range
   100308,                                        !- Barometric Pressure {N/M**2}
   17,                                            !- Wind Speed {M/Sec}
   0,                                             !- Wind Direction {Degrees N=0, S=180}
   No,                                            !- Rain Indicator
   No,                                            !- Snow on ground indicator
   No,                                            !- Daylight Savings Time Indicator
   ,                                              !- Solar Model Indicator
   ,                                              !- Beam Solar Day Schedule Name
   ,                                              !- Diffuse Solar Day Schedule Name
   ,                                              !- ASHRAE Clear Sky Optical Depth for Beam Irradiance (taub)
   ,                                              !- ASHRAE Clear Sky Optical Depth for Diffuse Irradiance (taud)
   0;                                             !- Clearness {0.0 to 1.2} - gives no sun (but does include long wave radiant heat exchange with sky)

Timestep, 2;                                      !- Timesteps/hour

ConvergenceLimits,
   1,                                             !- Minimum System Time Step (0=same as zone time step)
   25;                                            !- Maximum HVAC Iterations (1=min, 20=default)

ZoneAirContaminantBalance, 
   No,                                            !- Calculate Carbon Dioxide Concentration
   ,                                              !- Carbon Dioxide Concentration
   Yes,                                           !- Calculate Contaminant Concentration
   Off 24/7;                                      !- Contaminant Concentration

ScheduleTypeLimits, Any Number;                         ! Not limited
ScheduleTypeLimits, Fraction,     0.0, 1.0, CONTINUOUS;
ScheduleTypeLimits, Temperature,  -60, 200, CONTINUOUS;
ScheduleTypeLimits, Control Type,   0,   4, DISCRETE;
ScheduleTypeLimits, On/Off,         0,   1, DISCRETE;

Schedule:Compact, 
      On,                                         ! Name
      Any Number,                                 ! Type
      Through: 12/31,                             ! Type
      For: AllDays,                               ! All days in year
      Until: 24:00,                               ! All hours in day
       1;     

Schedule:Compact, 
      Off,                                        ! Name
      Any Number,                                 ! Type
      Through: 12/31,                             ! Type
      For: AllDays,                               ! All days in year
      Until: 24:00,                               ! All hours in day
       0;     

Schedule:Compact, 
      Work efficiency,                            ! Name
      Any Number,                                 ! Type
      Through: 12/31,                             ! Type
      For: AllDays,                               ! All days in year
      Until: 24:00,                               ! All hours in day
       0;     

Schedule:Compact,
      OpaqueShade,                                ! Name
      Any Number,                                 ! Type
      Through: 12/31,                             ! Type
      For: AllDays,                               ! All days in year
      Until: 24:00,                               ! All hours in day
       0;     
       
Schedule:Compact,
    Zone Comfort Control Type Sched,              !- Name
    Control Type,                                 !- Schedule Type Limits Name
    Through: 12/31,                               !- Field 1
    For: AllDays,                                 !- Field 2
    Until: 24:00,                                 !- Field 3
    4;                                            !- Field 4

Schedule:Compact,
    Design Days Only,                             !- Name
    Any Number,                                   !- Schedule Type Limits Name
    Through: 12/31,                               !- Field 1
    For: SummerDesignDay WinterDesignDay,         !- Field 2
    Until: 24:00,                                 !- Field 3
    1,                                            !- Field 4
    For: AllOtherDays,                            !- Field 2
    Until: 24:00,                                 !- Field 3
    0;
      
! off heating day
Schedule:Day:Hourly,  0, Any Number,
   0,0,0,0,0,0,0,0,0,0,0,0,0,0,0,0,0,0,0,0,0,0,0,0;

! off cooling day
Schedule:Day:Hourly,  50, Any Number,
   50,50,50,50,50,50,50,50,50,50,50,50,50,50,50,50,50,50,50,50,50,50,50,50;

! used in seasonal schedules
Schedule:Day:Hourly,  Off, Fraction,
   0,0,0,0,0,0,0,0,0,0,0,0,0,0,0,0,0,0,0,0,0,0,0,0;

Schedule:Week:Daily, Off,
   Off,Off,Off,Off,
   Off,Off,Off,Off,
   Off,Off,Off,Off;

! -------------------- Control type schedules (for heating & cooling) ----------------------

Schedule:Day:Hourly, Summer Control Type Day Sch, Control Type,
   4,4,4,4,4,4,4,4,4,4,4,4,4,4,4,4,4,4,4,4,4,4,4,4;

Schedule:Day:Hourly, Winter Control Type Day Sch, Control Type,
   4,4,4,4,4,4,4,4,4,4,4,4,4,4,4,4,4,4,4,4,4,4,4,4;

Schedule:Day:Hourly, Summer Control Type Day Sch - cool, Control Type,
   2,2,2,2,2,2,2,2,2,2,2,2,2,2,2,2,2,2,2,2,2,2,2,2;

Schedule:Day:Hourly, Winter Control Type Day Sch - heat, Control Type,
   1,1,1,1,1,1,1,1,1,1,1,1,1,1,1,1,1,1,1,1,1,1,1,1;

Schedule:Week:Daily, Summer Control Type Week Sch,
   Summer Control Type Day Sch,Summer Control Type Day Sch,Summer Control Type Day Sch,
   Summer Control Type Day Sch,Summer Control Type Day Sch,Summer Control Type Day Sch,
   Summer Control Type Day Sch,Summer Control Type Day Sch,Summer Control Type Day Sch,
   Summer Control Type Day Sch,Summer Control Type Day Sch,Summer Control Type Day Sch;

Schedule:Week:Daily, Winter Control Type Week Sch,
   Winter Control Type Day Sch,Winter Control Type Day Sch,Winter Control Type Day Sch,
   Winter Control Type Day Sch,Winter Control Type Day Sch,Winter Control Type Day Sch,
   Winter Control Type Day Sch,Winter Control Type Day Sch,Winter Control Type Day Sch,
   Winter Control Type Day Sch,Winter Control Type Day Sch,Winter Control Type Day Sch;

Schedule:Week:Daily, Summer Control Type Week Sch - cool,
   Summer Control Type Day Sch - cool,Summer Control Type Day Sch - cool,Summer Control Type Day Sch - cool,
   Summer Control Type Day Sch - cool,Summer Control Type Day Sch - cool,Summer Control Type Day Sch - cool,
   Summer Control Type Day Sch - cool,Summer Control Type Day Sch - cool,Summer Control Type Day Sch - cool,
   Summer Control Type Day Sch - cool,Summer Control Type Day Sch - cool,Summer Control Type Day Sch - cool;

Schedule:Week:Daily, Winter Control Type Week Sch - heat,
   Winter Control Type Day Sch - heat,Winter Control Type Day Sch - heat,Winter Control Type Day Sch - heat,
   Winter Control Type Day Sch - heat,Winter Control Type Day Sch - heat,Winter Control Type Day Sch - heat,
   Winter Control Type Day Sch - heat,Winter Control Type Day Sch - heat,Winter Control Type Day Sch - heat,
   Winter Control Type Day Sch - heat,Winter Control Type Day Sch - heat,Winter Control Type Day Sch - heat;

!Material:InfraredTransparent,
!IRTMaterial; !- Name

!Construction,
!IRTSurface,  !- Name
!IRTMaterial; !- Outside Layer





Material:NoMass, 
LinearBridgingLayer,                  ! Material Name
Rough,                                ! Roughness
0.6267 ,                              ! Resistance {M**2K/W} will give Total Resistance 1
0.0100000 ,                           ! Thermal Absorptance
0.0100000 ,                           ! Solar Absorptance
0.0100000 ;                           ! Visible Absorptance

Construction,
LinearBridgingConstruction,           !- Name
LinearBridgingLayer;                  !- Layer

Schedule:Compact,
TypOperativeTempControlSch,
Temperature,
Through: 31 Dec,
For: SummerDesignDay WinterDesignDay,
Until: 24:00, 0.0,
For: AllOtherDays,
Until: 24:00, 0.5;

Schedule:Compact, 
      OnWinterDesignDay,                          ! Name
      Any Number,                                 
      Through: 12/31,                             
      For: WinterDesignDay,                       ! All days in year
      Until: 24:00, 1,
      For: AllOtherDays,
      Until: 24:00, 0;     

Schedule:Compact, 
      OnSummerDesignDay,                          ! Name
      Any Number,                                 
      Through: 12/31,                             
      For: SummerDesignDay,                       ! All days in year
      Until: 24:00, 1,
      For: AllOtherDays,
      Until: 24:00, 0;     

Material:InfraredTransparent,
IRTMaterial; !- Name

Construction,
IRTSurface,  !- Name
IRTMaterial; !- Outside Layer


! Schedule: On 24/7
Schedule:Compact, 
On 24/7, 
Any Number,
Through: 12/31,
For: AllDays,   
Until: 24:00,   1 ;


! Schedule: Off 24/7
Schedule:Compact,
Off 24/7,
Any Number,
Through: 12/31,
For: AllDays,
Until: 24:00,  0  ;


! Schedule: Heating set point schedule
Schedule:Compact, 
Heating set point schedule, 
Any Number,
Through: 12/31,
For: AllDays,   
Until: 24:00,   20 ;


! Schedule: Cooling set point schedule
Schedule:Compact, 
Cooling set point schedule, 
Any Number,
Through: 12/31,
For: AllDays,   
Until: 24:00,   24 ;


! Schedule: Control type schedule: Always 4
Schedule:Compact, 
Control type schedule: Always 4, 
Any Number,
Through: 12/31,
For: AllDays,   
Until: 24:00,    4 ;


! Schedule: Relative humidity setpoint schedule: Always 50.00
Schedule:Compact, 
Relative humidity setpoint schedule: Always 50.00, 
Any Number,
Through: 12/31,
For: AllDays,   
Until: 24:00,   50 ;


! Schedule: Heating Fanger comfort setpoint: Always -0.5
Schedule:Compact, 
Heating Fanger comfort setpoint: Always -0.5, 
Any Number,
Through: 12/31,
For: AllDays,   
Until: 24:00,  -0.5;


! Schedule: Cooling Fanger comfort setpoint: Always  0.1
Schedule:Compact, 
Cooling Fanger comfort setpoint: Always  0.1, 
Any Number,
Through: 12/31,
For: AllDays,   
Until: 24:00,   0.1;


! Schedule: Zone CO2 setpoint: Always 900ppm
Schedule:Compact,
Zone CO2 setpoint: Always 900ppm,
Any Number,
Through: 12/31,
For: AllDays,
Until: 24:00,  900  ;


! Schedule: Min CO2 concentration: Always 600ppm
Schedule:Compact,
Min CO2 concentration: Always 600ppm,
Any Number,
Through: 12/31,
For: AllDays,
Until: 24:00,  600  ;


! Schedule: Generic contaminant setpoint: Always 0.5ppm
Schedule:Compact,
Generic contaminant setpoint: Always 0.5ppm,
Any Number,
Through: 12/31,
For: AllDays,
Until: 24:00,  0.5  ;


! Schedule: Air distribution effectiveness (always 1)
Schedule:Compact, 
Air distribution effectiveness (always 1), 
Any Number,
Through: 12/31,
For: AllDays,   
Until: 24:00, 1;


! Schedule: Dwell_DomBed_Occ
Schedule:Compact,
Dwell_DomBed_Occ,
Fraction,
Through: 31 Dec,
For: Weekdays SummerDesignDay,
Until: 07:00, 1,
Until: 08:00, 0.5,
Until: 09:00, 0.25,
Until: 22:00, 0,
Until: 23:00, 0.25,
Until: 24:00, 0.75,
For: Weekends,
Until: 07:00, 1,
Until: 08:00, 0.5,
Until: 09:00, 0.25,
Until: 22:00, 0,
Until: 23:00, 0.25,
Until: 24:00, 0.75,
For: Holidays,
Until: 07:00, 1,
Until: 08:00, 0.5,
Until: 09:00, 0.25,
Until: 22:00, 0,
Until: 23:00, 0.25,
Until: 24:00, 0.75,
For: WinterDesignDay AllOtherDays,
Until: 24:00, 0;


! Schedule: Dwell_DomBed_Light
Schedule:Compact,
Dwell_DomBed_Light,
Fraction,
Through: 31 Dec,
For: Weekdays SummerDesignDay,
Until: 07:00, 0,
Until: 10:00, 1,
Until: 19:00, 0,
Until: 23:00, 0.2,
Until: 24:00, 0,
For: Weekends,
Until: 07:00, 0,
Until: 10:00, 1,
Until: 19:00, 0,
Until: 23:00, 0.2,
Until: 24:00, 0,
For: Holidays,
Until: 07:00, 0,
Until: 10:00, 1,
Until: 19:00, 0,
Until: 23:00, 0.2,
Until: 24:00, 0,
For: WinterDesignDay AllOtherDays,
Until: 24:00, 0;


! Schedule: Dwell_DomBed_Equip
Schedule:Compact,
Dwell_DomBed_Equip,
Fraction,
Through: 31 Dec,
For: Weekdays SummerDesignDay,
Until: 07:00, 0.06993,
Until: 08:00, 0.53497,
Until: 09:00, 1,
Until: 10:00, 0.53497,
Until: 17:00, 0.06993,
Until: 18:00, 0.30245,
Until: 19:00, 0.53497,
Until: 20:00, 0.76748,
Until: 22:00, 1,
Until: 23:00, 0.76748,
Until: 24:00, 0.30245,
For: Weekends,
Until: 07:00, 0.06993,
Until: 08:00, 0.53497,
Until: 09:00, 1,
Until: 10:00, 0.53497,
Until: 17:00, 0.06993,
Until: 18:00, 0.30245,
Until: 19:00, 0.53497,
Until: 20:00, 0.76748,
Until: 22:00, 1,
Until: 23:00, 0.76748,
Until: 24:00, 0.30245,
For: Holidays,
Until: 07:00, 0.06993,
Until: 08:00, 0.53497,
Until: 09:00, 1,
Until: 10:00, 0.53497,
Until: 17:00, 0.06993,
Until: 18:00, 0.30245,
Until: 19:00, 0.53497,
Until: 20:00, 0.76748,
Until: 22:00, 1,
Until: 23:00, 0.76748,
Until: 24:00, 0.30245,
For: WinterDesignDay AllOtherDays,
Until: 24:00, 0;


! Schedule: Dwell_DomBed_Heat
Schedule:Compact,
Dwell_DomBed_Heat,
Temperature,
Through: 31 Dec,
For: Weekdays SummerDesignDay,
Until: 09:00, 1,
Until: 20:00, 0.5,
Until: 24:00, 1,
For: WinterDesignDay,
Until: 24:00, 1,
For: Weekends,
Until: 09:00, 1,
Until: 20:00, 0.5,
Until: 24:00, 1,
For: Holidays,
Until: 09:00, 1,
Until: 20:00, 0.5,
Until: 24:00, 1,
For: AllOtherDays,
Until: 24:00, 0;


! Schedule: Dwell_DomDining_Heat
Schedule:Compact,
Dwell_DomDining_Heat,
Temperature,
Through: 31 Dec,
For: Weekdays SummerDesignDay,
Until: 04:00, 0.5,
Until: 10:00, 1,
Until: 16:00, 0.5,
Until: 22:00, 1,
Until: 24:00, 0.5,
For: WinterDesignDay,
Until: 24:00, 1,
For: Weekends,
Until: 04:00, 0.5,
Until: 10:00, 1,
Until: 16:00, 0.5,
Until: 22:00, 1,
Until: 24:00, 0.5,
For: Holidays,
Until: 04:00, 0.5,
Until: 10:00, 1,
Until: 16:00, 0.5,
Until: 22:00, 1,
Until: 24:00, 0.5,
For: AllOtherDays,
Until: 24:00, 0;


! Schedule: Dwell_DomKitchen_Heat
Schedule:Compact,
Dwell_DomKitchen_Heat,
Temperature,
Through: 31 Dec,
For: Weekdays SummerDesignDay,
Until: 05:00, 0.5,
Until: 10:00, 1,
Until: 17:00, 0.5,
Until: 23:00, 1,
Until: 24:00, 0.5,
For: WinterDesignDay,
Until: 24:00, 1,
For: Weekends,
Until: 05:00, 0.5,
Until: 10:00, 1,
Until: 17:00, 0.5,
Until: 23:00, 1,
Until: 24:00, 0.5,
For: Holidays,
Until: 05:00, 0.5,
Until: 10:00, 1,
Until: 17:00, 0.5,
Until: 23:00, 1,
Until: 24:00, 0.5,
For: AllOtherDays,
Until: 24:00, 0;


! Schedule: Dwell_DomCirculation_Heat
Schedule:Compact,
Dwell_DomCirculation_Heat,
Temperature,
Through: 31 Dec,
For: Weekdays SummerDesignDay,
Until: 05:00, 0.5,
Until: 10:00, 1,
Until: 17:00, 0.5,
Until: 23:00, 1,
Until: 24:00, 0.5,
For: WinterDesignDay,
Until: 24:00, 1,
For: Weekends,
Until: 05:00, 0.5,
Until: 24:00, 1,
For: Holidays,
Until: 05:00, 0.5,
Until: 24:00, 1,
For: AllOtherDays,
Until: 24:00, 0;


! Schedule: Loop high setpoint temperature: Always 32.00
Schedule:Compact, 
Loop high setpoint temperature: Always 32.00, 
Any Number,
Through: 12/31,
For: AllDays,   
Until: 24:00, 32;


! Schedule: Loop low setpoint temperature: Always 15.00
Schedule:Compact, 
Loop low setpoint temperature: Always 15.00, 
Any Number,
Through: 12/31,
For: AllDays,   
Until: 24:00, 15;


! Schedule: Max CO2 concentration: Always 900ppm
Schedule:Compact,
Max CO2 concentration: Always 900ppm,
Any Number,
Through: 12/31,
For: AllDays,
Until: 24:00,  900  ;


! Schedule: Default Air Velocity for Comfort Calculations
Schedule:Compact, 
Default Air Velocity for Comfort Calculations, 
Any Number,
Through: 12/31,
For: AllDays,   
Until: 24:00,   0.1370 ;


! Schedule: Cooling fraction schedule
Schedule:Compact,
Cooling fraction schedule,
Fraction,
Through: 31 Dec,
For: AllDays,
Until: 24:00, 1 ;


! Schedule: Heating fraction schedule
Schedule:Compact,
Heating fraction schedule,
Fraction,
Through: 31 Dec,
For: AllDays,
Until: 24:00, 1 ;


! Schedule: Copy of Hot Water flow set point temperature: Always 80.0 C
Schedule:Compact, 
Copy of Hot Water flow set point temperature: Always 80.0 C, 
Any Number,
Through: 12/31,
For: AllDays,  
Until: 19:00,   70 ,
Until: 24:00,   0;



! Cast Concrete- thickness 0.1
Material, Cast Concrete_.1,
   Rough,                                         !- Roughness
   .1,                                            !- Thickness {m}
   1.13,                                          !- Conductivity {w/m-K}
   2000,                                          !- Density {kg/m3}
   1000,                                          !- Specific Heat {J/kg-K}
   0.9,                                           !- Thermal Emittance
   0.6,                                           !- Solar Absorptance
   0.6;                                           !- Visible Absorptance

! Timber Flooring- thickness 0.1248
Material, Timber Flooring_.1248,
   Rough,                                         !- Roughness
   .1248,                                         !- Thickness {m}
   0.14,                                          !- Conductivity {w/m-K}
   650,                                           !- Density {kg/m3}
   1200,                                          !- Specific Heat {J/kg-K}
   0.9,                                           !- Thermal Emittance
   0.78,                                          !- Solar Absorptance
   0.78;                                          !- Visible Absorptance

! Gypsum Plasterboard- thickness 0.009
Material, Gypsum Plasterboard_.009,
   Rough,                                         !- Roughness
   .009,                                          !- Thickness {m}
   0.25,                                          !- Conductivity {w/m-K}
   900,                                           !- Density {kg/m3}
   1000,                                          !- Specific Heat {J/kg-K}
   0.9,                                           !- Thermal Emittance
   0.5,                                           !- Solar Absorptance
   0.5;                                           !- Visible Absorptance

! Painted Oak- thickness 0.042
Material, Painted Oak_.042,
   Rough,                                         !- Roughness
   .042,                                          !- Thickness {m}
   0.19,                                          !- Conductivity {w/m-K}
   700,                                           !- Density {kg/m3}
   2390,                                          !- Specific Heat {J/kg-K}
   0.9,                                           !- Thermal Emittance
   0.5,                                           !- Solar Absorptance
   0.5;                                           !- Visible Absorptance

! Brickwork outer leaf- thickness 0.105
Material, Brickwork outer leaf_.105,
   Rough,                                         !- Roughness